/*--------------------------------*- C++ -*----------------------------------*\
| =========                 |                                                 |
| \\      /  F ield         | OpenFOAM: The Open Source CFD Toolbox           |
|  \\    /   O peration     | Version:  v2106                                 |
|   \\  /    A nd           | Website:  www.openfoam.com                      |
|    \\/     M anipulation  |                                                 |
\*---------------------------------------------------------------------------*/
FoamFile
{
    version     2.0;
    format      ascii;
    class       dictionary;
    object      snappyHexMeshDict;
}
// * * * * * * * * * * * * * * * * * * * * * * * * * * * * * * * * * * * * * //

#includeEtc "caseDicts/mesh/generation/snappyHexMeshDict.cfg"

castellatedMesh true;
snap            false;
addLayers       false;

geometry
{
}

castellatedMeshControls
{
    refinementSurfaces
    {
    }

    nCellsBetweenLevels 1;

    refinementRegions
    {
        // Note: for better mesh quality utilize this refinement region
        
    }
    locationInMesh (0 0 0);
}

addLayersControls
{
    relativeSizes       true;
    minThickness        1;
    finalLayerThickness 1;
    expansionRatio      1;
    layers
    {}
}

// ************************************************************************* //
